snemVIC.m
%% MATPOWER Case Format : Version 2
function mpc = NEM
mpc.version = '2';

%%-----  Power Flow Data  -----%%
%% system MVA base
mpc.baseMVA = 100;
%% bus data
%    bus_i    type    Pd    Qd    Gs    Bs    area    Vm    Va    baseKV    zone    Vmax    Vmin
mpc.bus = [
	57	2	0.0	0.0	0.0	0.0	2	1.0150199999980112	26.574204207058294	11.5	1	1.1	0.9				
	58	2	0.0	0.0	0.0	0.0	2	0.9449199999981235	32.2407555956578	11.5	1	1.1	0.9				
	62	2	0.0	0.0	0.0	0.0	2	0.9160899999978572	22.749411195264727	11.0	1	1.1	0.9				
	129	1	0.0	0.0	0.0	0.0	2	1.0146368513621042	26.607624962823937	132.0	1	1.1	0.9				
	231	1	0.0	0.0	0.0	0.0	2	1.012473390145268	25.81602410448722	132.0	1	1.1	0.9				
	321	1	0.0	0.0	0.0	0.0	2	0.9155745317069488	22.687781204559705	132.0	1	1.1	0.9				
	341	1	0.0	0.0	0.0	0.0	2	1.012473969283255	25.816012250332406	132.0	1	1.1	0.9				
	575	1	0.0	0.0	0.0	0.0	2	1.0259002747838373	19.645081060958688	66.0	1	1.1	0.9				
	644	1	0.0	0.0	0.0	-12.065929093863819	2	1.012566767030594	54.993049068485526	33.0	1	1.1	0.9				
	645	1	-12.400487943291699	0.0	0.0	0.0	2	1.043762199061656	31.411569780210705	0.6899999999999998	1	1.1	0.9				
	646	1	-16.563881022247802	0.0	0.0	0.0	2	1.0202114741891382	33.18203045717708	0.6899999999999998	1	1.1	0.9				
	647	2	0.0	0.0	0.0	0.0	2	0.9708499999978247	36.06278290428806	13.8	1	1.1	0.9				
	648	2	0.0	0.0	0.0	0.0	2	0.9711999999978108	35.728922423687465	13.8	1	1.1	0.9				
	649	1	0.0	0.0	0.0	20.3065230660141	2	1.0206171652333416	34.15025600041905	33.0	1	1.1	0.9				
	650	1	0.0	0.0	0.0	19.143381948582807	2	1.0193269162493925	34.331811872807656	33.0	1	1.1	0.9				
	651	2	0.0	0.0	0.0	0.0	2	1.0291599999976884	34.987216072201186	33.0	1	1.1	0.9				
	652	2	0.0	0.0	0.0	0.0	2	1.0302099999977177	35.437853339465114	33.0	1	1.1	0.9				
	653	1	0.0	0.0	0.0	0.0	2	0.9840922455201828	19.316334735983734	22.0	1	1.1	0.9				
	654	2	0.0	0.0	0.0	0.0	2	1.0643099999979166	42.28687468144276	0.6899999999999998	1	1.1	0.9				
	655	2	0.0	0.0	0.0	0.0	2	1.0596799999981261	45.35821083867774	0.6899999999999998	1	1.1	0.9				
	656	2	0.0	0.0	0.0	0.0	2	0.9771299999976308	29.36170543973307	11.0	1	1.1	0.9				
	657	1	0.0	0.0	0.0	0.0	2	0.9544512407257029	24.72905701906868	11.0	1	1.1	0.9				
	658	2	0.0893076585740782	0.0884848609473556	0.0	0.0	2	0.9745599999977684	34.465684305789495	15.5	1	1.1	0.9				
	659	2	0.0	0.0	0.0	0.0	2	1.0098799999972754	29.567775932908194	11.0	1	1.1	0.9				
	660	2	0.0	0.0	0.0	0.0	2	1.0121999999972753	29.553991548974352	11.0	1	1.1	0.9				
	661	2	0.0	0.0	0.0	0.0	2	1.0604899999970583	27.529103959227847	220.0	1	1.1	0.9				
	662	1	0.0	0.0	0.0	0.0	2	0.9720702810613849	22.96042881693237	17.0	1	1.1	0.9				
	663	1	0.0	0.0	0.0	0.0	2	0.9720702810613849	22.96042881693237	17.0	1	1.1	0.9				
	664	1	0.0	0.0	0.0	0.0	2	0.9693569574843955	23.90624188116951	17.0	1	1.1	0.9				
	665	2	0.07360570005029439	0.0781584249287844	0.0	0.0	2	0.9599599999981182	28.1345191418516	17.0	1	1.1	0.9				
	666	1	0.0	0.0	0.0	0.0	2	0.9720702851111545	22.960429037247042	15.0	1	1.1	0.9				
	667	1	0.0	0.0	0.0	0.0	2	0.9718463593500246	23.113011605650637	15.0	1	1.1	0.9				
	668	2	0.0433536336387042	0.0467908781440929	0.0	0.0	2	0.9663499999981113	26.97337731875335	15.0	1	1.1	0.9				
	669	1	0.0	0.0	0.0	0.0	2	0.9720702840774358	22.960428987402423	15.0	1	1.1	0.9				
	670	1	0.0	0.0	0.0	0.0	2	0.9720702840774358	22.960428987402423	15.0	1	1.1	0.9				
	671	1	0.0	0.0	0.0	0.0	2	0.9718303171300445	23.260546470174585	15.0	1	1.1	0.9				
	672	2	0.046108789184317	0.0428978709062561	0.0	0.0	2	0.9724199999981106	26.981130078838007	15.0	1	1.1	0.9				
	673	1	0.0	0.0	0.0	0.0	2	0.9713411465423143	23.2201567928978	15.0	1	1.1	0.9				
	674	2	0.0429395555164665	0.04375657760538159	0.0	0.0	2	0.9636099999981107	26.939053895466667	15.0	1	1.1	0.9				
	675	1	0.0	0.0	0.0	0.0	2	0.9720702851111545	22.960429037247042	15.0	1	1.1	0.9				
	676	1	0.0	0.0	0.0	0.0	2	0.9238466848007926	36.00279315046362	10.5	1	1.1	0.9				
	677	2	0.0	0.0	0.0	0.0	2	0.9306599999980519	40.549031192140305	10.5	1	1.1	0.9				
	678	1	0.0	0.0	0.0	0.0	2	0.9238466848007925	36.00279315046362	10.5	1	1.1	0.9				
	679	1	0.0433001450244337	0.04369530380819919	0.0	0.0	2	0.9237732357734703	35.99856294569609	10.5	1	1.1	0.9				
	680	2	0.0714593282807618	0.0702238406734541	0.0	0.0	2	0.9573799999981323	43.07397171604047	10.5	1	1.1	0.9				
	681	2	0.0685315078463405	0.0689244811926037	0.0	0.0	2	0.9380299999981511	43.352429258916295	10.5	1	1.1	0.9				
	682	2	0.06858651151768859	0.0746841716375202	0.0	0.0	2	0.9476299999981398	43.184078946320554	10.5	1	1.1	0.9				
	683	3	0.0	0.0	0.0	0.0	2	1.0873399999965068	17.235253580535346	220.0	1	1.1	0.9				
	684	2	0.0	0.0	0.0	0.0	2	0.9889799999973815	31.852319617075494	15.75	1	1.1	0.9				
	685	2	0.0	0.0	0.0	0.0	2	0.9960299999974178	32.46285560120502	15.75	1	1.1	0.9				
	686	1	0.0	0.0	0.0	0.0	2	1.0232832273562846	34.73507721569391	21.0	1	1.1	0.9				
	687	2	30.7330869440481	21.546654364705102	0.0	0.0	2	1.0061799999977858	39.221409194214054	24.0	1	1.1	0.9				
	688	2	49.2048921859311	30.981598984707603	0.0	0.0	2	1.0117099999979462	41.591382423270005	21.0	1	1.1	0.9				
	689	2	44.4492790900692	29.052256582199004	0.0	0.0	2	0.9902999999979444	41.60178568238112	21.0	1	1.1	0.9				
	690	2	41.4067931137048	31.1884031072259	0.0	0.0	2	0.998909999998037	42.2348626041662	20.0	1	1.1	0.9				
	691	2	42.047680030390616	29.526598063297598	0.0	0.0	2	0.9968599999980564	42.50158286235846	20.0	1	1.1	0.9				
	692	1	0.0	0.0	0.0	0.0	2	0.9439991164036747	34.73500060830645	11.5	1	1.1	0.9				
	693	2	0.0	0.0	0.0	0.0	2	1.0652399999991415	47.2075651017596	0.6899999999999998	1	1.1	0.9				
	694	2	0.0	0.0	0.0	0.0	2	1.0729099999991267	46.88505773338788	0.6899999999999998	1	1.1	0.9				
	695	2	0.0	0.0	0.0	0.0	2	1.0777299999991428	47.25763287462632	0.6899999999999998	1	1.1	0.9				
	696	2	0.0	0.0	0.0	0.0	2	1.0746099999989962	43.976505534653334	0.6899999999999998	1	1.1	0.9				
	697	2	0.0	0.0	0.0	0.0	2	1.0769399999990095	44.262081662956575	0.6899999999999998	1	1.1	0.9				
	698	2	0.0	0.0	0.0	0.0	2	1.08352999999907	45.656032565256304	0.6899999999999998	1	1.1	0.9				
	699	2	0.0822368995671161	0.0853392213732936	0.0	0.0	2	0.9751699999977564	34.34833773773198	11.5	1	1.1	0.9				
	700	2	0.0805542713109404	0.0812393866575323	0.0	0.0	2	0.9754199999977287	33.59066742672811	11.5	1	1.1	0.9				
	701	2	0.0	0.0	0.0	0.0	2	0.9701499999977297	33.586178002842416	11.5	1	1.1	0.9				
	702	2	2.0279785892623496	0.89940664539272	0.0	0.0	2	0.9941299999987611	40.25363444924879	20.0	1	1.1	0.9				
	703	2	1.9344733449239297	0.8359173977880741	0.0	0.0	2	0.9889999999987391	39.74295600120799	20.0	1	1.1	0.9				
	704	1	6.791062040939461	2.2136897100674027	0.0	0.0	2	0.9955276922615758	29.66878012029184	11.0	1	1.1	0.9				
	705	1	2.83867607538979	2.416459847174211	0.0	0.0	2	0.9957657849159061	29.870885387999078	11.0	1	1.1	0.9				
	706	1	0.0	0.0	0.0	0.0	2	1.0328361841725866	35.531946538061085	11.0	1	1.1	0.9				
	707	1	0.0	0.0	0.0	0.0	2	0.9999109475651934	42.05654249063058	66.0	1	1.1	0.9				
	708	2	0.0	0.0	0.0	0.0	2	0.9908099999982619	46.98349177756459	11.0	1	1.1	0.9				
	709	1	0.0	0.0	0.0	0.0	2	0.9999109475651914	42.05654249063058	11.0	1	1.1	0.9				
	710	2	0.0	0.0	0.0	0.0	2	0.9983599999979031	42.05657325092798	66.0	1	1.1	0.9				
	711	1	-12.5581507745981	0.0	0.0	-1.9958203605422684	2	1.0552619002740624	50.32034084752834	0.6899999999999998	1	1.1	0.9				
	712	2	28.389421854219798	19.7755909688836	0.0	0.0	2	0.9662499999974996	32.942612568990306	24.0	1	1.1	0.9				
	713	1	-13.584044715054297	0.0	0.0	-5.082986681889741	2	0.9790204986019512	46.16499965389944	0.65	1	1.1	0.9				
	714	1	-16.4040159864128	0.0	0.0	-2.9745974592603703	2	1.0176116440937186	45.89490631650874	0.65	1	1.1	0.9				
	715	2	0.0	0.0	0.0	0.0	2	1.0691399999989415	57.46293450797582	0.6899999999999998	1	1.1	0.9				
	716	1	0.0	0.0	0.0	0.0	2	1.031040873858999	30.92448379919248	220.0	1	1.1	0.9				
	717	1	-60.403543384554204	0.0	0.0	-0.6417840429851788	2	0.9811720978793675	36.63293452753912	22.0	1	1.1	0.9				
	718	1	-43.084699273509	0.0	0.0	-0.40307864109473296	2	0.9756443042953208	41.52065534174657	22.0	1	1.1	0.9				
	719	1	-20.8482984288689	0.0	0.0	-0.26953107667714393	2	0.976148046414519	40.47829094082644	22.0	1	1.1	0.9				
	720	1	-24.5875283879838	0.0	0.0	-0.28152144284546393	2	0.9757079469730741	41.33352788659084	22.0	1	1.1	0.9				
	721	2	0.0	0.0	0.0	75.03373719449161	2	0.9972699999967205	24.827966724524487	165.0	1	1.1	0.9				
	722	1	0.0	0.0	0.0	0.0	2	1.0003639621258495	22.25459970170275	220.0	1	1.1	0.9				
	723	1	0.0	0.0	0.0	0.0	2	1.0002946670826793	20.843524863108215	220.0	1	1.1	0.9				
	724	2	0.0	0.0	0.0	0.0	2	0.9586299999966199	20.843524890166783	10.5	1	1.1	0.9				
	725	2	0.0	0.0	0.0	0.0	2	0.9645799999966496	22.254599725480247	10.5	1	1.1	0.9				
	726	1	0.0	0.0	0.0	0.0	2	1.0149011826210514	26.602169628019997	11.0	1	1.1	0.9				
	727	1	0.0	0.0	0.0	0.0	2	1.0149011826210514	26.602169628019997	11.0	1	1.1	0.9				
	728	2	0.0	0.0	0.0	0.0	2	0.9999999999979367	39.73668826810252	12.0	1	1.1	0.9				
	729	2	0.04727787645086649	0.0465347684986889	0.0	0.0	2	0.9702899999976017	30.116628866524938	11.5	1	1.1	0.9				
	730	2	21.994129019313295	17.1773928644646	0.0	0.0	2	0.9918499999980335	43.694459646093314	20.0	1	1.1	0.9				
	731	2	21.5008671013484	17.558730970256	0.0	0.0	2	0.9728599999974434	35.39719003309161	20.0	1	1.1	0.9				
	732	2	33.5007157789878	19.0538795878291	0.0	0.0	2	0.9922299999974175	35.01722613050159	20.0	1	1.1	0.9				
	733	2	37.6543846465889	20.2329956645221	0.0	0.0	2	0.989559999997476	35.91384648869651	20.0	1	1.1	0.9				
	734	1	-22.867481542127198	0.0	0.0	0.0	2	1.1200984122755628	35.75715523341899	66.0	1	1.1	0.9				
	735	1	138.099319126361	35.2016740600468	0.0	0.0	2	1.0457794625195493	16.240287543134524	66.0	1	1.1	0.9				
	736	1	0.0	0.0	0.0	0.0	2	0.9887861057359196	34.15871952243429	132.0	1	1.1	0.9				
	737	1	0.0	0.0	0.0	0.0	2	1.009347681672613	29.14043518824295	132.0	1	1.1	0.9				
	738	1	0.0	0.0	0.0	0.0	2	1.031726120195238	31.7932254344966	132.0	1	1.1	0.9				
	739	1	0.0	0.0	0.0	0.0	2	0.9876296713897246	37.16169530856174	132.0	1	1.1	0.9				
	740	1	0.0	0.0	0.0	0.0	2	1.0113088491451268	24.993177988916734	132.0	1	1.1	0.9				
	741	1	29.9978272767177	6.303746532732291	0.0	0.0	2	1.0145971534125444	18.231265256641993	22.0	1	1.1	0.9				
	742	1	0.0	0.0	0.0	0.0	2	1.0236493156847861	22.740563927110834	220.0	1	1.1	0.9				
	743	1	0.0	0.0	0.0	0.0	2	1.0267609686872181	25.997743419864268	220.0	1	1.1	0.9				
	744	1	0.0	0.0	0.0	0.0	2	1.036316112057754	30.36095481550286	220.0	1	1.1	0.9				
	745	1	0.0	0.0	0.0	0.0	2	1.0660188295753519	27.72025987217642	220.0	1	1.1	0.9				
	746	1	0.0	0.0	0.0	0.0	2	1.03851108722335	17.858167429342707	220.0	1	1.1	0.9				
	747	1	0.0	0.0	0.0	0.0	2	1.0315040145190066	26.516684846015877	220.0	1	1.1	0.9				
	748	1	0.0	0.0	0.0	0.0	2	1.0292271999857467	22.457670549984513	220.0	1	1.1	0.9				
	749	1	0.0	0.0	0.0	0.0	2	1.0295160054418029	21.954799822069425	220.0	1	1.1	0.9				
	750	1	0.0	0.0	0.0	199.49564241804202	2	1.0276319895315562	22.484485026236655	220.0	1	1.1	0.9				
	751	1	0.0	0.0	0.0	0.0	2	1.0291301744277046	22.16967810697998	220.0	1	1.1	0.9				
	752	1	0.0	0.0	0.0	0.0	2	1.0386189000449453	19.737569598224557	220.0	1	1.1	0.9				
	753	1	0.0	0.0	0.0	0.0	2	0.9992368545434274	20.094124344171355	220.0	1	1.1	0.9				
	754	1	0.0	0.0	0.0	0.0	2	1.0101896697503385	22.35621030673013	220.0	1	1.1	0.9				
	755	1	0.0	0.0	0.0	0.0	2	1.0697510032364477	29.735655106651464	220.0	1	1.1	0.9				
	756	1	0.0	0.0	0.0	0.0	2	1.0632060662988867	23.60737987037856	220.0	1	1.1	0.9				
	757	1	0.0	0.0	0.0	0.0	2	1.0121341549178824	22.145015521386373	220.0	1	1.1	0.9				
	758	1	0.0	0.0	0.0	0.0	2	1.0492082171933945	25.298475022395518	220.0	1	1.1	0.9				
	759	1	0.0	0.0	0.0	194.83352617360597	2	1.0299651698870522	21.86988652775175	220.0	1	1.1	0.9				
	760	1	0.0	0.0	0.0	0.0	2	1.021780409661631	20.55950637373845	220.0	1	1.1	0.9				
	761	1	0.0	0.0	0.0	0.0	2	1.0373018403885552	17.875174146914432	220.0	1	1.1	0.9				
	762	1	0.0	0.0	0.0	0.0	2	1.0402487831761023	20.417021245811735	220.0	1	1.1	0.9				
	763	1	0.0	0.0	0.0	0.0	2	1.0074153090244273	15.514551321833428	220.0	1	1.1	0.9				
	764	1	0.0	0.0	0.0	0.0	2	1.026283292002171	25.377030421742116	220.0	1	1.1	0.9				
	765	1	0.0	0.0	0.0	0.0	2	1.0444422963730573	27.543624547679258	220.0	1	1.1	0.9				
	766	1	0.0	0.0	0.0	0.0	2	1.009053337073968	19.57193878939211	220.0	1	1.1	0.9				
	767	1	0.0	0.0	0.0	0.0	2	1.0343453249332106	35.47061092614635	220.0	1	1.1	0.9				
	768	1	0.0	0.0	0.0	0.0	2	1.034370896517602	35.470026811577995	220.0	1	1.1	0.9				
	769	1	0.0	0.0	0.0	0.0	2	1.034421426798687	35.4652255920457	220.0	1	1.1	0.9				
	770	1	0.0	0.0	0.0	0.0	2	1.0343706025537294	35.46942485961002	220.0	1	1.1	0.9				
	771	1	0.0	0.0	0.0	0.0	2	1.0332990854979174	35.577833897149596	220.0	1	1.1	0.9				
	772	1	0.0	0.0	0.0	0.0	2	1.00510258531067	27.97552570947661	220.0	1	1.1	0.9				
	773	1	0.0	0.0	0.0	0.0	2	1.0328361841725888	35.531946538061085	220.0	1	1.1	0.9				
	774	1	0.0	0.0	0.0	0.0	2	1.00510258531067	27.97552570947661	220.0	1	1.1	0.9				
	775	1	0.0	0.0	0.0	0.0	2	1.0149011826210534	26.602169628019997	132.0	1	1.1	0.9				
	776	1	13.792812516733798	5.37586184972898	0.0	0.0	2	1.0086366639080033	21.666567556674114	220.0	1	1.1	0.9				
	777	1	13.6005968414425	5.425259412590411	0.0	0.0	2	1.008631238430542	21.66610152526815	220.0	1	1.1	0.9				
	778	1	0.0	0.0	0.0	0.0	2	1.0329655761851064	36.00279315046362	220.0	1	1.1	0.9				
	779	1	0.0	0.0	0.0	0.0	2	1.026205616639668	37.54764568080836	220.0	1	1.1	0.9				
	780	1	0.0	0.0	0.0	0.0	2	1.0328339646484068	35.61992267201136	220.0	1	1.1	0.9				
	781	1	0.0	0.0	0.0	0.0	2	1.0554337077778568	17.26495057975803	220.0	1	1.1	0.9				
	782	1	0.0	0.0	0.0	198.91213114373397	2	1.0273402802267122	23.156523506818424	220.0	1	1.1	0.9				
	783	1	0.0	0.0	0.0	0.0	2	1.0303880958794738	21.99645549801419	220.0	1	1.1	0.9				
	784	1	0.0	0.0	0.0	0.0	2	1.0652224936292016	26.609014764170254	220.0	1	1.1	0.9				
	785	1	0.0	0.0	0.0	0.0	2	0.9869024819093974	34.735045590229774	220.0	1	1.1	0.9				
	786	1	0.0	0.0	0.0	0.0	2	0.9869081671492983	34.73500060830645	220.0	1	1.1	0.9				
	787	1	0.0	0.0	0.0	0.0	2	1.0175917694237113	38.753154635786885	132.0	1	1.1	0.9				
	788	1	0.0	0.0	0.0	0.0	2	1.0153790589844152	39.38136051895596	132.0	1	1.1	0.9				
	789	1	0.0	0.0	0.0	0.0	2	1.0664789115218445	28.079369661024458	220.0	1	1.1	0.9				
	790	1	0.0	0.0	0.0	143.07915623299806	2	1.0280320254339128	25.998216304726558	220.0	1	1.1	0.9				
	791	1	0.0	0.0	0.0	0.0	2	1.0321945356424271	35.55529075529985	220.0	1	1.1	0.9				
	792	1	0.0	0.0	0.0	0.0	2	1.032060536696983	35.53843127197379	220.0	1	1.1	0.9				
	793	1	0.0	0.0	0.0	0.0	2	1.0326920869365845	35.518066929494346	220.0	1	1.1	0.9				
	794	1	0.0	0.0	0.0	0.0	2	1.0094411222624147	20.37426490094535	220.0	1	1.1	0.9				
	795	1	0.0	0.0	0.0	0.0	2	1.0293646288862892	22.456133319785543	220.0	1	1.1	0.9				
	796	1	0.0	0.0	0.0	0.0	2	1.0268325372298686	25.371729596456984	220.0	1	1.1	0.9				
	797	1	0.0	0.0	0.0	0.0	2	1.0268663678882424	25.37140898075763	220.0	1	1.1	0.9				
	798	1	19.234677194158408	-17.476931403428374	0.0	0.0	2	1.0273384623394841	22.00771778904075	220.0	1	1.1	0.9				
	799	1	0.0	0.0	0.0	410.5885448865589	2	1.0128031867128118	22.25436330510271	220.0	1	1.1	0.9				
	800	1	0.0	0.0	0.0	199.19887247495387	2	1.014214194307539	20.84326822020449	220.0	1	1.1	0.9				
	801	1	0.0	0.0	0.0	0.0	2	1.0140859772728437	20.919413126812998	220.0	1	1.1	0.9				
	802	1	0.0	0.0	0.0	0.0	2	1.0125576747311484	22.318461824180044	220.0	1	1.1	0.9				
	803	1	0.0	0.0	0.0	0.0	2	0.9988302198023733	20.096567584134714	220.0	1	1.1	0.9				
	804	1	0.0	0.0	0.0	192.38662167452298	2	1.021173132371732	19.670222464585933	220.0	1	1.1	0.9				
	805	1	0.0	0.0	0.0	0.0	2	1.0296971708767426	18.414140861338936	220.0	1	1.1	0.9				
	806	1	0.0	0.0	0.0	0.0	2	1.0394081816204304	20.391289125561112	220.0	1	1.1	0.9				
	807	1	0.0	0.0	0.0	0.0	2	1.030334459740355	21.358693903554446	220.0	1	1.1	0.9				
	808	1	0.0	0.0	0.0	0.0	2	1.010857629283253	20.10494700748014	220.0	1	1.1	0.9				
	809	1	0.0	0.0	0.0	0.0	2	1.0311240097840317	21.987298582520094	220.0	1	1.1	0.9				
	810	1	0.0	0.0	0.0	0.0	2	1.008734151444511	21.676765013394483	220.0	1	1.1	0.9				
	811	1	0.0	0.0	0.0	0.0	2	1.012265833187439	37.27210343911356	132.0	1	1.1	0.9				
	812	1	0.0	0.0	0.0	0.0	2	1.0129818285905223	24.929315002605286	220.0	1	1.1	0.9				
	813	1	0.0	0.0	0.0	0.0	2	1.0322020831606138	29.121103026363176	220.0	1	1.1	0.9				
	814	1	0.0	0.0	0.0	0.0	2	1.027914095668731	19.50753693266513	220.0	1	1.1	0.9				
	815	1	0.0	0.0	0.0	0.0	2	1.041603259467417	20.49534970756385	220.0	1	1.1	0.9				
	816	1	0.0	0.0	0.0	0.0	2	1.0277238641472453	21.0269946592518	220.0	1	1.1	0.9				
	817	1	0.0	0.0	0.0	0.0	2	1.0290698306246937	22.170016700704256	220.0	1	1.1	0.9				
	818	1	0.0	0.0	0.0	196.31135710515096	2	1.0385526406024597	19.73790351962108	220.0	1	1.1	0.9				
	819	1	0.0	0.0	0.0	0.0	2	1.065236664882053	26.64387654712098	220.0	1	1.1	0.9				
	820	1	0.0	0.0	0.0	0.0	2	1.0291052347061824	21.730881676021355	220.0	1	1.1	0.9				
	821	1	0.0	0.0	0.0	0.0	2	1.0161917204870512	22.249516243587035	220.0	1	1.1	0.9				
	822	1	0.0	0.0	0.0	0.0	2	1.0023298865783867	29.53173576745271	220.0	1	1.1	0.9				
	823	1	0.0	0.0	0.0	0.0	2	1.023671488081786	37.5928795860832	220.0	1	1.1	0.9				
	824	1	0.0	0.0	0.0	0.0	2	1.036892851197903	21.892300487102403	220.0	1	1.1	0.9				
	825	1	0.0	0.0	0.0	0.0	2	1.021986877934091	23.12279777934263	220.0	1	1.1	0.9				
	826	1	0.0	0.0	0.0	0.0	2	1.0340893074568511	23.261873487016913	330.0	1	1.1	0.9				
	827	1	392.43225703932166	-87.89484408249947	0.0	-151.66557784192293	2	1.0192009660943706	22.960429060747	330.0	1	1.1	0.9				
	828	1	0.0	0.0	0.0	0.0	2	1.03204460076549	24.977567399585244	330.0	1	1.1	0.9				
	829	1	0.0	0.0	0.0	0.0	2	1.0294149497824185	25.00600959320988	330.0	1	1.1	0.9				
	830	1	0.0	0.0	0.0	0.0	2	1.0505248597543027	24.16166563891286	330.0	1	1.1	0.9				
	831	1	56.5040144902767	-45.42830826813837	0.0	0.0	2	1.0375065400034738	22.490704221774344	330.0	1	1.1	0.9				
	832	1	-470.9594798965127	135.84192828091957	0.0	0.0	2	1.0621878658178243	34.907781438109076	275.0	1	1.1	0.9				
	833	1	212.5117920743858	34.8243513141602	0.0	0.0	2	1.010467813899855	16.168386050799473	66.0	1	1.1	0.9				
	834	1	0.0	0.0	0.0	0.0	2	1.0417022955630557	28.24496124406367	500.0	1	1.1	0.9				
	835	1	0.0	0.0	0.0	0.0	2	1.0365179199565202	34.03700328795139	500.0	1	1.1	0.9				
...
];

%% generator data
%    bus    Pg    Qg    Qmax    Qmin    Vg    mBase    status    Pmax    Pmin    Pc1    Pc2    Qc1min    Qc1max    Qc2min    Qc2max    ramp_agc    ramp_10    ramp_30    ramp_q    apf
mpc.gen = [
	57	0.0	3.705844785782062	16.0322794052772	-12.997324272897101	1.01502	46.1062790306169	1	46.1062790306169	0.0															
	58	30.3989596087625	-10.134865415774838	15.8197994363727	-13.1615677549504	0.94492	46.5332684993628	1	46.5332684993628	0.0															
	62	22.5934707990981	11.83771405376168	17.86149778	-26.08310961	0.91609	30.5123773106886	1	30.512377310688603	0.0															
	647	64.58350418747361	1.1030900223124651	32.339815942443	-29.313641349795798	0.97085	86.4684665810317	1	86.4684665810317	0.0															
	648	58.69554476671941	1.014917647130634	31.1776407402344	-30.0504588578418	0.9712	90.0339754913002	1	90.03397549130018	0.0															
	654	50.990623193234306	-2.429381107933805	4.11030738369925	-4.017584092566491	1.06431	98.9588547302624	1	98.9588547302624	0.0															
	655	112.97404027993099	-3.391659116567901	4.33245126562393	-4.413120239160119	1.05968	179.468505843356	1	179.46850584335604	0.0															
	656	12.718660331978601	3.204372785091078	6.315259544737641	0.0	0.97713	23.38719214	1	23.38719214	0.0															
	658	165.978187592202	1.4581784471306585	78.8080960141728	-43.796791934408205	0.97456	189.47538619999997	1	189.4753862	0.0															
	659	51.46347397016579	-10.92257169315048	31.2449329170631	-25.2157668292522	1.00988	70.2652235693065	1	70.2652235693065	0.0															
	660	53.7882164716721	-10.086293915097226	31.741274535656	-25.4046234145761	1.0122	71.0795632928889	1	71.07956329288892	0.0															
	665	115.27907018156999	-13.123772440617937	48.3790735420771	-49.01848117285411	0.95996	152.586644802825	1	152.58664480282502	0.0															
	668	69.7121333398338	-5.351245984950825	41.7424389316002	-41.16014991402629	0.96635	108.100446894949	1	108.100446894949	0.0															
	672	65.804614318345	0.8394408864226448	42.2600043794839	-41.2807382822037	0.97242	110.470307527771	1	110.47030752777098	0.0															
	674	69.5386755602799	-8.425779183503723	42.237306916737	-41.14350542631	0.96361	108.17915012921699	1	108.17915012921699	0.0															
	680	71.3839554087347	2.0227501252079882	39.69561401579989	-32.341330635594204	0.95738	107.325694307219	1	107.32569430721901	0.0															
	681	72.45267330743368	-12.334031049010335	40.0196046266938	-32.419386330759195	0.93803	107.571180567611	1	107.571180567611	0.0															
	682	71.4069515075775	-5.42705299558911	39.2482589823194	-31.640905901323997	0.94763	108.142809283454	1	108.14280928345399	0.0															
	684	136.046296661597	-8.708454570428287	100.40218695297199	-30.2816066885351	0.98898	201.368655754533	1	201.36865575453297	0.0															
	685	143.32652905182	-1.2638597300463315	101.370253659187	-30.145730123524906	0.99603	201.766158744693	1	201.766158744693	0.0															
	687	346.95005454379395	-38.691031371837845	320.62392085313303	-207.056388105103	1.00618	630.7525659587229	1	630.7525659587229	0.0															
	688	545.601412348538	5.364675405330659	306.75843227841	-196.662271597704	1.01171	692.4764770461251	1	692.476477046125	0.0															
	689	526.740899209748	-79.94797690428011	333.46965	-100.12324156000001	0.9903	743.727576350409	1	743.7275763504091	0.0															
	690	511.886080085132	56.90779627328998	321.508501711393	-108.03294496504299	0.99891	651.18307242021	1	651.18307242021	0.0															
	691	529.759362199972	50.06466453899845	323.341019248349	-104.66104357627299	0.99686	647.149878913164	1	647.149878913164	0.0															
	693	90.0189063795386	4.343779283868822	4.88538250780636	-4.99310070382631	1.06524	115.622949829081	1	115.62294982908101	0.0															
	694	51.7755913180758	10.338234426153047	15.976388799999999	-26.051903250000002	1.07291	69.6506796327507	1	69.6506796327507	0.0															
	695	27.502320582569702	7.00683097625836	7.813163267061421	-7.902615132351171	1.07773	46.581592120633	1	46.581592120633005	0.0															
	696	50.68418794423341	9.238767217571414	11.79132423804	-12.0872618720163	1.07461	114.864380666002	1	114.86438066600199	0.0															
	697	30.970484672293104	6.558393212035901	7.2769157751365094	-7.434656453233031	1.07694	73.23516054158162	1	73.23516054158162	0.0															
	698	43.3489842760144	8.979635537215398	14.532299273	-24.384855461	1.08353	113.018319971292	1	113.01831997129199	0.0															
	699	50.769790687559	0.18668689343590406	16.8239149765134	-13.642655924681602	0.97517	100.974593	1	100.974593	0.0															
	700	46.9121250839084	-0.2554732508680642	16.1336600902486	-13.476504607977102	0.97542	100.3645848	1	100.36458479999999	0.0															
	701	49.47508432327339	-0.4865925556445156	16.5539831709787	-13.8422341934865	0.97015	100.148673	1	100.14867299999999	0.0															
	702	259.780769472675	28.2623422375623	125.99553129896502	-67.0686107195914	0.99413	352.29798341787	1	352.29798341787	0.0															
	703	247.87455000916	15.760434445548915	125.559830033267	-66.7450787763111	0.989	353.577216341277	1	353.577216341277	0.0															
	708	31.694694625116902	-3.225372898046027	23.8484369408552	-14.2477135847208	0.99081	51.6119330540299	1	51.61193305402989	0.0															
	712	473.373842322757	47.01726029939007	257.205845451355	-169.321169144879	0.96625	626.956900197733	1	626.956900197733	0.0															
	729	28.8376042157381	-2.6103754801739125	15.784886686247802	-13.1879192154855	0.97029	100.8087346	1	100.8087346	0.0															
	730	348.993836114038	-78.18692655673648	180.333202431328	-118.968445812119	0.99185	476.643849198753	1	476.643849198753	0.0															
	731	315.80497244537196	-40.79199693294853	185.48609343960402	-117.95162653643601	0.97286	413.478915313189	1	413.47891531318896	0.0															
	732	326.010094955155	15.396162056412033	192.90598906888602	-144.21475696458901	0.99223	481.327456929814	1	481.327456929814	0.0															
	733	384.30129750208005	12.048500698137241	193.607759779878	-144.348324105609	0.98956	475.496667556395	1	475.49666755639504	0.0															
	953	34.37087262522778	0.589378967917001	19.3516230660025	-12.8601512594149	1.02644	47.1338866906008	1	47.1338866906008	0.0															
	954	32.5579225848377	0.3003766481589401	19.5075354155153	-12.972653710562701	1.02602	46.1283384356648	1	46.1283384356648	0.0															
	955	34.989074655062	0.9812771517488703	19.822111973376	-16.054868796635404	1.02719	53.539829139953895	1	53.539829139953895	0.0															
	956	33.0022717441131	0.12427495249933997	19.7613415580941	-13.006189162284102	1.02592	66.5378691187571	1	66.5378691187571	0.0															
	651	54.67394886340681	-4.400727590551045	9.70698741	-19.637411181000004	1.02916	0.6813865119328261	1	68.13865119328261	0.0															
	652	62.799762154911306	-3.7700401051376544	5.27611068387646	-5.23834847509805	1.03021	0.722928195972706	1	72.2928195972706	0.0															
	661	0.0	5.736111111038862	54.66677273390822	-26.464350084424996	1.06049	0.805258456163574	1	80.5258456163574	0.0															
	677	43.28520227	4.393934928627934	25.32622196	-11.91957485	0.93066	0.8649797139	1	86.49797138999999	0.0															
	683	0.0	11.687649506755564	53.9117323420942	-26.9661332224496	1.08734	0.8069375603401568	1	80.69375603401568	0.0															
	710	0.0	-5.275561385188121	37.016437508422	-47.7671224802546	0.99836	0.8328711747474011	1	83.28711747474011	0.0															
	715	57.092109828077106	-0.3767569243244582	5.002194597439	-15.002176306373	1.06914	0.7154404457942581	1	71.54404457942582	0.0															
	721	131.340468163	-149.5193641855009	71.4239528563339	-238.37096662202399	0.99727	2.8083047291124204	1	280.83047291124205	0.0															
	724	0.0	-45.285712509193836	106.27115393756002	-64.7528788140044	0.95863	1.7526201493293	1	175.26201493293001	0.0															
	725	0.0	-40.04420879188588	106.707702297717	-65.3504699352197	0.96458	1.74613961108029	1	174.613961108029	0.0															
	728	164.359907981834	0.37314406239690856	11.1569698714883	-10.8202143092507	1.0	1.97247388340067	1	197.247388340067	0.0															
	881	41.1145145477321	-1.3635348107608434	6.9324764100000005	-16.891752452	0.9829	0.6404374503154663	1	64.04374503154664	0.0															
	882	29.992808700421698	-3.200057561237983	7.087702195	-17.060376551	0.98135	0.509823243989935	1	50.9823243989935	0.0															
	976	-3.0814879110195774e-31	0.5701068494566081	8.191250262781981	-8.242415345215699	1.01382	0.0789633095503086	1	7.89633095503086	0.0															
	2113	410.90327254569206	-184.40842600255593	546.196422690991	-542.232308350504	1.0366	5.391681234934368	1	539.1681234934368	0.0															
];

%% branch data
%    f_bus    t_bus    r    x    b    rateA    rateB    rateC    ratio    angle    status    angmin    angmax
mpc.branch = [
	129	231	0.0190887799974158	0.04172849446032199	0.00854633274437673	10000	10000	10000	0	0	1	-59.99999999999999	59.99999999999999	30.205063441888	-8.761822703250868	-30.023055036753952	8.281736474343528				
	129	775	0.0183899826684594	0.050378967693149986	0.01034528192169959	10000	10000	10000	0	0	1	-59.99999999999999	59.99999999999999	0.0002566476769923958	-1.0649670546784948	-0.000206004881968193	-0.00020600488125929826				
	231	341	0.000416743140108883	0.0011521763272723193	0.0009929085485839738	10000	10000	10000	0	0	1	-59.99999999999999	59.99999999999999	1.0531351422979514e-8	-0.10178331931532963	-3.950249957869467e-12	1.2134905032863338e-11				
	231	740	0.015802826208318608	0.044923353904043284	0.00933202304306393	10000	10000	10000	0	0	1	-59.99999999999999	59.99999999999999	30.02305502621522	-8.17995315504773	-29.87495507931132	7.645434843151537				
	575	928	0.0388522235676646	0.07012074033168607	0.0028613290156517196	10000	10000	10000	0	0	1	-59.99999999999999	59.99999999999999	22.593428885263034	10.319120620621746	-22.364525838057414	-10.202583487757465				
	649	651	0.018048725110013	0.026878994611860288	0.0153800046887342	10000	10000	10000	0	0	1	-59.99999999999999	59.99999999999999	-54.162377608140574	3.547044584855291	54.6739488634075	-4.400727590550352				
	650	652	0.019588109638318404	0.031389611440245116	0.0173876047174912	10000	10000	10000	0	0	1	-59.99999999999999	59.99999999999999	-62.070390520295184	3.1128342257898343	62.799762154911356	-3.770040105137534				
	653	936	0.008128502958578058	0.006957501380439847	0.0030079312680289082	10000	10000	10000	0	0	1	-59.99999999999999	59.99999999999999	-4.564491146163974e-15	6.684540074242129e-13	1.780567520216856e-6	-0.291294785956311				
	707	897	0.18198002893477694	0.5451616301460748	0.0635872793281451	10000	10000	10000	0	0	1	-59.99999999999999	59.99999999999999	31.587874355058744	-11.27404868354943	-29.65248707868292	10.687543507213913				
	734	915	0.41226039971826595	1.1316942371413596	0.0630846680544838	10000	10000	10000	0	0	1	-59.99999999999999	59.99999999999999	22.86748154212707	1.0685896612017132e-13	-21.097733425074022	-2.375785725421738				
	736	739	0.004971595307840502	0.03065954238960802	0.017224825533222406	10000	10000	10000	0	0	1	-59.99999999999999	59.99999999999999	-161.3079606117443	33.41821326721375	162.69077698992172	-26.572563411590718				
	737	738	0.009607968535549013	0.043988443889394414	0.012938000009162396	10000	10000	10000	0	0	1	-59.99999999999999	59.99999999999999	-114.75679560248437	-24.40584112444732	116.051934750055	28.987765688891827				
	742	750	0.000399832021144684	0.004235038354274539	0.0145561170408884	10000	10000	10000	0	0	1	-59.99999999999999	59.99999999999999	101.04918538922357	-106.31969298008113	-100.96770769175075	105.65148820934536				
	742	782	0.0008046938038334249	0.008353818991296176	0.0279790688687176	10000	10000	10000	0	0	1	-59.99999999999999	59.99999999999999	-94.83607950959359	-37.226792060746696	94.91496803469764	35.10336337208141				
	743	746	0.013431080529686099	0.08108519604572327	0.12651973004775102	10000	10000	10000	0	0	1	-59.99999999999999	59.99999999999999	180.95487702054496	-38.274037081651144	-176.6559221032361	50.73568643335001				
	743	747	0.0029796192036420114	0.013111843587214097	0.0366202971653547	10000	10000	10000	0	0	1	-59.99999999999999	59.99999999999999	-77.52056800505548	-21.124542598846077	77.70082694024657	18.039247430254548				
	743	790	0.009187571532729083	0.05269655591454363	0.09214342373788362	10000	10000	10000	0	0	1	-59.99999999999999	59.99999999999999	-0.43509427214536744	-7.2577754627800735	0.4356130491377983	-2.4653925157402345				
	743	790	0.009860241520312379	0.0408560810320061	0.11149033649200996	10000	10000	10000	0	0	1	-59.99999999999999	59.99999999999999	-0.7486369355192984	-8.890505039877977	0.7495387910149148	-2.874053302210472				
	743	812	0.016648394341745896	0.07473909750522208	0.22281211980653498	10000	10000	10000	0	0	1	-59.99999999999999	59.99999999999999	28.79097745803678	1.0135036693827308	-28.634370081667537	-23.48703675983319				
	743	813	0.0053951992275193305	0.022765985775520102	0.07127407228554598	10000	10000	10000	0	0	1	-59.99999999999999	59.99999999999999	-244.1150221066767	36.47010820918104	247.24754132245135	-30.8058045961507				
	744	765	0.013877042790591704	0.06439637115210337	0.17726140939577895	10000	10000	10000	0	0	1	-59.99999999999999	59.99999999999999	76.67350035944463	-37.08692724991196	-75.81566318025375	21.880847215480028				
	744	813	0.006367306272927211	0.027158378575501487	0.08241840986138209	10000	10000	10000	0	0	1	-59.99999999999999	59.99999999999999	84.47805923226203	-7.611063281514935	-84.0543419893854	0.602072996392683				
	745	784	0.0013001766294985998	0.008036634145718997	0.013069602971702794	10000	10000	10000	0	0	1	-59.99999999999999	59.99999999999999	269.12059599178406	-31.060852506277243	-268.28143815529575	34.76372797494743				
	745	789	0.0008421298802173697	0.004777153258506207	0.007859624643204732	10000	10000	10000	0	0	1	-59.99999999999999	59.99999999999999	-146.33896252802117	15.551196878782807	146.49955629904	-15.533746283019727				
	746	761	0.0034679520819573687	0.02033304813351019	0.034218560488963004	10000	10000	10000	0	0	1	-59.99999999999999	59.99999999999999	-0.504459439785423	4.417259877288819	0.5057287151445511	-8.096013042667442				
	746	781	0.017872952238603492	0.07174215882535087	0.231948394981083	10000	10000	10000	0	0	1	-59.99999999999999	59.99999999999999	9.166685582260783	-39.206181265953376	-9.034635604090893	14.309519046143517				
	747	790	0.006230915575435382	0.026851199239250292	0.07606260662846272	10000	10000	10000	0	0	1	-59.99999999999999	59.99999999999999	36.882672169757555	0.8942445804248633	-36.80157996033706	-8.61066022432524				
	748	795	0.000296841385345906	0.002776703977817671	0.009573081146804621	10000	10000	10000	0	0	1	-59.99999999999999	59.99999999999999	0.47370361364480074	-5.651678989210232	-0.4736288177313379	4.638158480003277				
	749	759	0.00048782393343280996	0.004888195287203417	0.017379839438349004	10000	10000	10000	0	0	1	-59.99999999999999	59.99999999999999	30.89902048001659	-13.440807483186184	-30.89390479299948	11.649170148515402				
	750	782	0.0008131730828588831	0.008924756108472726	0.031080229380257392	10000	10000	10000	0	0	1	-59.99999999999999	59.99999999999999	-137.2255299099756	15.03468786480643	137.37267442277422	-16.700970142200237				
	751	817	0.000562120080071874	0.005577772383585759	0.021024791721033404	10000	10000	10000	0	0	1	-59.99999999999999	59.99999999999999	3.9477969504542187e-13	5.9078732032348535e-12	6.579200433802848e-6	-2.226558589453244				
	752	818	0.0005562738694781439	0.006089567136086057	0.020952470819438802	10000	10000	10000	0	0	1	-59.99999999999999	59.99999999999999	-6.056570175938525e-13	-5.81223166384176e-13	6.585847140447125e-6	-2.259987966967843				
	753	803	0.00037330622823536394	0.003563982158915138	0.22836601879024898	10000	10000	10000	0	0	1	-59.99999999999999	59.99999999999999	1.4193507480442236e-12	1.2156074757907476e-13	0.00048596511241956464	-22.787843155083586				
	754	757	0.00104867656389577	0.011853558385269698	0.0400783972142031	10000	10000	10000	0	0	1	-59.99999999999999	59.99999999999999	30.098040368892043	-21.220507717121567	-30.08495257276359	17.270630508341927				
	754	757	0.0011111691968461999	0.011264201011260997	0.03697743134647612	10000	10000	10000	0	0	1	-59.99999999999999	59.99999999999999	31.437943156869846	-22.36472932734599	-31.42261527804357	18.739356786896757				
	754	810	0.0012217929453634698	0.013437908735643	0.04452485417765558	10000	10000	10000	0	0	1	-59.99999999999999	59.99999999999999	90.22026131110003	1.000194665208333	-90.12267907060814	-4.4640793084640435				
	754	810	0.0012226914350714495	0.013482357550733591	0.04185749815809539	10000	10000	10000	0	0	1	-59.99999999999999	59.99999999999999	89.92395341536117	1.146366160362232	-89.82693817339697	-4.341936943381495				
	754	821	0.0011893345311833501	0.003844130265852718	0.27864755692642607	10000	10000	10000	0	0	1	-59.99999999999999	59.99999999999999	0.8606392065099777	-172.1641652467543	-0.5698819349684692	144.4989759486919				
	755	784	0.00599557220601104	0.037242143099565986	0.05669661848284299	10000	10000	10000	0	0	1	-59.99999999999999	59.99999999999999	165.4290184817546	-12.313826534646532	-163.99090856357887	14.786034067777686				
	756	762	0.012510400101412108	0.05200493783319837	0.15241654734290194	10000	10000	10000	0	0	1	-59.99999999999999	59.99999999999999	123.3071464983215	11.953111052390158	-121.57760515875748	-21.62478622291319				
	756	762	0.012808153970567495	0.05059709308527409	0.14922785345776896	10000	10000	10000	0	0	1	-59.99999999999999	59.99999999999999	126.60877130123443	11.144215092377053	-124.74907358167002	-20.30621519369572				
	756	784	0.0049458644476989295	0.029758027096581607	0.05152112713225191	10000	10000	10000	0	0	1	-59.99999999999999	59.99999999999999	-194.25572003963728	27.390958637685948	195.94692695030446	-23.050431390109317				
	756	784	0.00496594058944564	0.029142798756854597	0.04993934007002041	10000	10000	10000	0	0	1	-59.99999999999999	59.99999999999999	-198.0925240301056	28.90769487497	199.8606169884904	-24.187473731800434				
	756	805	0.02112934033975939	0.1274463215401769	0.2018123024362139	10000	10000	10000	0	0	1	-59.99999999999999	59.99999999999999	80.75316087457077	6.685999251532565	-79.47306969913429	-21.070187338789264				
	757	799	0.00010470552357239595	0.0011095416858061195	0.004655600405135189	10000	10000	10000	0	0	1	-59.99999999999999	59.99999999999999	-180.45838167543724	-44.07036276578354	180.4936302927003	43.96664240312974				
	757	799	0.00011006581656681404	0.00114517962626601	0.004322130158264193	10000	10000	10000	0	0	1	-59.99999999999999	59.99999999999999	-174.88687204679096	-42.380046263169746	174.92164343244085	42.298766590899916				
	758	784	0.020017212745891914	0.11633047975880108	0.19982756147054015	10000	10000	10000	0	0	1	-59.99999999999999	59.99999999999999	-23.713416703190447	-21.11076181534054	23.834260671849968	-0.5230445622065198				
	758	784	0.019481227195430495	0.11086228768869293	0.18929906432856794	10000	10000	10000	0	0	1	-59.99999999999999	59.99999999999999	-24.905164407079592	-20.935241192207442	25.03450103538054	0.5120086088503437				
	758	817	0.00635874067770783	0.03973166105965149	0.35989286797854103	10000	10000	10000	0	0	1	-59.99999999999999	59.99999999999999	153.53371889742192	12.849035739019952	-152.11049350201225	-42.821457504568016				
	759	795	0.00019153571402654097	0.0024148042459273687	0.008900781093072152	10000	10000	10000	0	0	1	-59.99999999999999	59.99999999999999	-444.21247703562494	62.674183966002396	444.5759521970535	-59.03530683872125				
	759	820	0.00030013288639392695	0.002256446549001149	0.003827496217478071	10000	10000	10000	0	0	1	-59.99999999999999	59.99999999999999	117.13017601124456	23.60771775314493	-117.08975639367942	-23.709529420926177				
	759	820	0.00031981171670667803	0.0023106928081680096	0.004014771087387581	10000	10000	10000	0	0	1	-59.99999999999999	59.99999999999999	114.41968070171569	22.416415831261535	-114.37866837879412	-22.54563779962638				
	761	805	0.01318316152333	0.07740523510854318	0.126036528490853	10000	10000	10000	0	0	1	-59.99999999999999	59.99999999999999	-10.91734324965621	5.330649280071151	10.949918303569973	-18.601795484941526				
	762	805	0.010936901737460902	0.04356436478570102	0.128318999967095	10000	10000	10000	0	0	1	-59.99999999999999	59.99999999999999	87.14301404314271	-2.1224800635671586	-86.37315388702534	-8.556469385975527				
	762	805	0.010676699938508697	0.04509400252178311	0.13045406109806199	10000	10000	10000	0	0	1	-59.99999999999999	59.99999999999999	84.39367551517005	-1.2477287067976628	-83.6876241309186	-9.744398313899833				
	764	782	0.009366815684552299	0.05361450247066087	0.09534981412142518	10000	10000	10000	0	0	1	-59.99999999999999	59.99999999999999	73.84446149810657	-18.46915934434858	-73.34343292333976	11.283847096212124				
	764	782	0.00924798332766071	0.053182785421909774	0.09334227652210277	10000	10000	10000	0	0	1	-59.99999999999999	59.99999999999999	74.46489835165984	-18.415489351350267	-73.96202353581758	11.465918720413804				
	764	790	0.00038072894593421403	0.004158919578190428	0.014146777734858904	10000	10000	10000	0	0	1	-59.99999999999999	59.99999999999999	-276.52887414068255	-17.092137484834012	276.8062555852131	18.629572412822114				
	764	790	0.000393053491250612	0.004212782374327068	0.0139477559354017	10000	10000	10000	0	0	1	-59.99999999999999	59.99999999999999	-272.97705948103214	-16.39504571784404	273.25605450973455	17.91377627851422				
	764	796	0.004345158005093599	0.02513548229660471	0.042561107084360415	10000	10000	10000	0	0	1	-59.99999999999999	59.99999999999999	0.00020747733387492875	-4.483979614681514	-7.259817746962938e-14	-2.292328653286102e-13				
	764	797	0.0043668032237562295	0.02528716259955239	0.044910172644454086	10000	10000	10000	0	0	1	-59.99999999999999	59.99999999999999	0.00023217793287183194	-4.731540850148615	-2.587340064419408e-13	-3.5846976428888233e-13				
	764	825	0.006739115919772531	0.04214303099727491	0.06920126304184092	10000	10000	10000	0	0	1	-59.99999999999999	59.99999999999999	97.38368585449437	-6.828239249144427	-96.77624387003195	3.368650056697628				
	765	798	0.038134001305901014	0.17352022196738	0.529795954112448	10000	10000	10000	0	0	1	-59.99999999999999	59.99999999999999	59.66831042636722	-28.830624482140376	-58.42370557933441	-22.36070993021968				
	766	808	0.0009016232245555149	0.006542809895049778	0.011354002024760501	10000	10000	10000	0	0	1	-59.99999999999999	59.99999999999999	-145.9948487536218	-7.61120514454946	146.18403023859102	7.825917987956943				
	766	808	0.0009167831882601599	0.006605039541091766	0.0117969666179419	10000	10000	10000	0	0	1	-59.99999999999999	59.99999999999999	-144.6065338094466	-7.425102652026455	144.79523751759223	7.581330523273438				
	767	771	0.0002069693132583049	0.001960622995626179	0.0069912200163979995	10000	10000	10000	0	0	1	-59.99999999999999	59.99999999999999	-95.11801157480181	64.95777318938131	95.14377111016631	-65.46096641924201				
	768	771	0.00019640794490929703	0.0020278877571187895	0.007044568549197171	10000	10000	10000	0	0	1	-59.99999999999999	59.99999999999999	-92.99420297627073	63.393443822784064	93.01754337384203	-63.90539120931473				
	769	771	0.00019975570372417602	0.0020503472810387596	0.006844992267079651	10000	10000	10000	0	0	1	-59.99999999999999	59.99999999999999	-96.01973310799094	65.712499601122	96.04509617242896	-66.1838050281489				
	770	771	0.000193962298416533	0.0019162299942774696	0.006627941900323142	10000	10000	10000	0	0	1	-59.99999999999999	59.99999999999999	-98.6596223673899	67.57158819999778	98.68563275265312	-68.0230255732241				
	771	773	0.00018246517295762894	0.001420946110881869	0.00856651685665362	10000	10000	10000	0	0	1	-59.99999999999999	59.99999999999999	63.431711641649294	25.08319193321294	-63.42372078905456	-25.935206574392662				
	771	780	0.00020632025398733097	0.0021030630661547194	0.007866414308864618	10000	10000	10000	0	0	1	-59.99999999999999	59.99999999999999	-34.700310257364904	25.850809374909474	34.70397067273767	-26.653022619140117				
	771	780	0.00020583950828388292	0.002210941631253809	0.007232884424345567	10000	10000	10000	0	0	1	-59.99999999999999	59.99999999999999	-33.14639905967758	24.450585357075415	33.14970640136343	-25.18697347955164				
	771	780	0.0003400255733798259	0.002596857518264089	0.004413075420940292	10000	10000	10000	0	0	1	-59.99999999999999	59.99999999999999	-27.296491886302416	21.85695271557624	27.3004191099765	-22.29793466210144				
	771	780	0.0003603379282890821	0.0026389979536822093	0.004583207085356122	10000	10000	10000	0	0	1	-59.99999999999999	59.99999999999999	-26.720781502228803	21.626580207754262	26.72480554305345	-22.086241445049257				
	771	823	0.0015683810303360201	0.010757968693808698	0.02154129301171001	10000	10000	10000	0	0	1	-59.99999999999999	59.99999999999999	-324.45977234515595	144.705068641447	326.31866466827887	-134.2330499805569				
	773	793	5.749267146270719e-5	0.00043102456189691974	0.002653679296579766	10000	10000	10000	0	0	1	-59.99999999999999	59.99999999999999	63.423507438960705	25.934993224256388	-63.42097300552603	-26.19903439063971				
	774	799	0.013075861348863698	0.08598227087504696	0.15436117734290694	10000	10000	10000	0	0	1	-59.99999999999999	59.99999999999999	114.89362442498279	-28.373970633777567	-113.13021666127885	24.255541182907795				
	774	799	0.013171793957417799	0.09105013254806399	0.15749718136750201	10000	10000	10000	0	0	1	-59.99999999999999	59.99999999999999	108.75362386367699	-26.619869398191508	-107.16610637803798	21.560372000375803				
	774	822	0.0015590754571557003	0.011842288122549697	0.022189217794582206	10000	10000	10000	0	0	1	-59.99999999999999	59.99999999999999	-223.64724828865968	54.99384003196865	224.4677662039537	-50.99687103776176				
	776	810	0.00018703271722700398	0.0013835397634329304	0.00270571276431903	10000	10000	10000	0	0	1	-59.99999999999999	59.99999999999999	-13.796949176294532	-5.378434595006555	13.79734962735742	5.106105125666916				
	777	810	0.00019200482895365007	0.00146742422333686	0.002547431816868481	10000	10000	10000	0	0	1	-59.99999999999999	59.99999999999999	-13.596789632461032	-5.423016160482156	13.597191431618178	5.166900865792549				
	778	780	2.0933600753545798e-5	0.016528068157923403	0.0002595988709363159	10000	10000	10000	0	0	1	-59.99999999999999	59.99999999999999	43.135209490267684	0.8981776022603253	-43.134844290772364	-0.6375314579196992				
	779	780	1.9915019690990495e-5	0.016624841478455787	0.00019882531930692497	10000	10000	10000	0	0	1	-59.99999999999999	59.99999999999999	214.41556663314222	-37.57416801351087	-214.40660569536453	45.03358731475106				
	780	791	0.00025054983029980203	0.00200171277230792	0.00337547262687888	10000	10000	10000	0	0	1	-59.99999999999999	59.99999999999999	63.22129033049092	24.933526622725413	-63.210421294318145	-25.20654518484575				
	780	792	0.0002819011253113859	0.0021983018706757586	0.003807055201935579	10000	10000	10000	0	0	1	-59.99999999999999	59.99999999999999	72.44125792851203	26.894589726264346	-72.42544968820876	-27.17712708733197				
	781	815	0.025363330169625595	0.10223296750162494	0.31432492248838795	10000	10000	10000	0	0	1	-59.99999999999999	59.99999999999999	-53.34648915672764	11.71494080245696	54.18888996666551	-42.87754541864746				
	782	825	0.00228570948153734	0.015065901232173693	0.024860506944404902	10000	10000	10000	0	0	1	-59.99999999999999	59.99999999999999	9.423630161933808	33.76431099099692	-9.395061782262651	-36.18621749332435				
	783	816	0.0009393524110503499	0.006592382960687857	0.049219361649034496	10000	10000	10000	0	0	1	-59.99999999999999	59.99999999999999	272.51094233162985	2.498213139964106	-271.8536667151743	-3.0975710491477013				
	783	817	0.0008894545979518438	0.006284480084222737	0.045985328248385304	10000	10000	10000	0	0	1	-59.99999999999999	59.99999999999999	-47.09655039585502	25.915904038708337	47.121869378328995	-30.613029953121274				
	783	820	0.000670636828750372	0.007230202485864979	0.024406902947346692	10000	10000	10000	0	0	1	-59.99999999999999	59.99999999999999	69.09437803476273	10.73532817231032	-69.06330791753881	-12.98841391478297				
	783	820	0.0006666561790071429	0.0069991231961958065	0.023765066861699304	10000	10000	10000	0	0	1	-59.99999999999999	59.99999999999999	71.38947309774049	10.987300006888587	-71.35652963635908	-13.161428396088423				
	784	819	0.0003953226087003019	0.0023477231428236686	0.00412955168459751	10000	10000	10000	0	0	1	-59.99999999999999	59.99999999999999	-28.701050167855907	3.9645121297856223	28.703981488271108	-4.4156897776436255				
	785	786	0.00035307477947557294	0.0025987682139175005	0.004435454061618071	10000	10000	10000	0	0	1	-59.99999999999999	59.99999999999999	8.92824314994089e-5	-0.4319149375128122	-8.911343459405024e-5	-8.911343981574476e-5				
	787	811	0.0025266189029630303	0.021645775906711594	0.009455725739460897	10000	10000	10000	0	0	1	-59.99999999999999	59.99999999999999	124.40992787982236	11.616182063000613	-124.02869061633213	-9.324110004493624				
	788	811	0.00240388200370185	0.02246416785838659	0.009780412194164468	10000	10000	10000	0	0	1	-59.99999999999999	59.99999999999999	168.3098887320145	-1.3431531243460664	-167.64936747580177	6.510425887451113				
	790	812	0.017818977666822302	0.11337811219789096	0.18241553445353206	10000	10000	10000	0	0	1	-59.99999999999999	59.99999999999999	18.83891881305682	1.2061856701578926	-18.759248196196438	-19.697673626790007				
	794	800	0.0019743506534286802	0.011418497856808799	0.020015458426438298	10000	10000	10000	0	0	1	-59.99999999999999	59.99999999999999	-78.29549194879071	-29.37732770661969	78.42985107433326	28.105198432506334				
	794	800	0.00196616546090613	0.0119394883109932	0.0219495316559449	10000	10000	10000	0	0	1	-59.99999999999999	59.99999999999999	-74.760486669476	-28.87426953028257	74.88319744829829	27.372232484861637				
	798	815	0.008971069602827533	0.03662728961556498	0.11129935167913799	10000	10000	10000	0	0	1	-59.99999999999999	59.99999999999999	63.733478980505865	-60.47637373936246	-63.1347889827956	51.009675761241894				
	799	802	9.50679070362821e-6	0.0002090194286219779	0.005472927423363623	10000	10000	10000	0	0	1	-59.99999999999999	59.99999999999999	-542.3409736889787	143.65629840958897	542.3701539858761	-143.57599136710812				
	799	803	0.0016786723447857396	0.014330808020047393	0.05228309098184108	10000	10000	10000	0	0	1	-59.99999999999999	59.99999999999999	274.1771391884515	68.95886307791528	-272.8629411064231	-63.02913221387143				
	799	803	0.0017355580345261796	0.01406910382051019	0.052790194559236996	10000	10000	10000	0	0	1	-59.99999999999999	59.99999999999999	279.5132979287366	68.4986136674515	-278.10562453615967	-62.42833812608002				
	799	817	0.00218630816331599	0.025524773603677792	0.104655027370113	10000	10000	10000	0	0	1	-59.99999999999999	59.99999999999999	0.4794042775840168	-69.94901875134069	-0.3905045684847064	60.07790300075179				
	799	822	0.0121452006932395	0.08390096510558849	0.15176848091576203	10000	10000	10000	0	0	1	-59.99999999999999	59.99999999999999	-146.9480932049371	35.87717502593556	149.7305161889504	-32.06356302648633				
	800	801	1.0044198731426098e-5	0.00019089638580568107	0.005992021034259236	10000	10000	10000	0	0	1	-59.99999999999999	59.99999999999999	-710.4434265746673	105.66876088691394	710.4938082705784	-105.32750431297579				
	800	804	0.0007013533345368691	0.007748384664811848	0.026005498152980606	10000	10000	10000	0	0	1	-59.99999999999999	59.99999999999999	263.48999411078	-113.47436215689956	-262.9308804533291	116.95789478481888				
	800	808	0.000428328207653761	0.004093473282750698	0.014285872889906202	10000	10000	10000	0	0	1	-59.99999999999999	59.99999999999999	328.05700715170474	50.18130085226063	-327.59806974702633	-47.25993282070419				
	800	808	0.00042233568367115195	0.0042743119683601	0.015507754096128002	10000	10000	10000	0	0	1	-59.99999999999999	59.99999999999999	314.07520394679887	49.805732045734615	-313.6596802611164	-47.19026617817663				
	800	814	0.0013416226926874395	0.012983437423920295	0.047052907961988806	10000	10000	10000	0	0	1	-59.99999999999999	59.99999999999999	174.48146997070864	-125.28598841171092	-173.88750276366252	126.12822945913624				
	800	822	0.0120122415253893	0.08654728344094009	0.146434041872248	10000	10000	10000	0	0	1	-59.99999999999999	59.99999999999999	-170.350614540867	43.51832194264913	174.0437963870526	-31.796413493360888				
	800	822	0.012325610323250299	0.08456427620989267	0.15528751949276795	10000	10000	10000	0	0	1	-59.99999999999999	59.99999999999999	-173.81599998510325	45.39643437887579	177.77763998381718	-34.00345216054012				
	800	822	0.011393775906152998	0.08247717504936736	0.1508197676508689	10000	10000	10000	0	0	1	-59.99999999999999	59.99999999999999	-178.8069986846439	45.702778665461054	182.6649813329215	-33.1087030889862				
	804	816	0.0016720886687934399	0.011591404093527203	0.06721246806595481	10000	10000	10000	0	0	1	-59.99999999999999	59.99999999999999	-217.80602011488693	-27.25727093154935	218.5757438698059	25.53923428859084				
	806	818	0.0006650936940181999	0.004815960733768999	0.015896750101493697	10000	10000	10000	0	0	1	-59.99999999999999	59.99999999999999	253.52103431308666	-15.948257877661549	-253.12395763163516	17.107477314521873				
	807	816	0.0006777916551139211	0.004464692128207069	0.015306715736296004	10000	10000	10000	0	0	1	-59.99999999999999	59.99999999999999	143.20962362209252	38.08983760447558	-143.06901753003666	-38.78448128496229				
	809	821	0.004262866420265656	0.013724685004259591	0.6554331547836127	10000	10000	10000	0	0	1	-59.99999999999999	59.99999999999999	-0.06437933883419733	77.4416042418444	0.5698819349689299	-144.4989759486837				
	809	824	0.004540037298478421	0.015323280113273798	0.7263394973015753	10000	10000	10000	0	0	1	-59.99999999999999	59.99999999999999	0.06437933883429031	-77.44160424184166	6.064593272014918e-13	2.9053148775659565e-12				
	814	818	0.00112422189139295	0.006127288629370739	0.043828941658251	10000	10000	10000	0	0	1	-59.99999999999999	59.99999999999999	-99.42359586823024	-162.4049008149248	99.80145848194148	159.78517037639702				
	826	827	0.004174791797623041	0.03486583329755811	0.44633077104978314	10000	10000	10000	0	0	1	-59.99999999999999	59.99999999999999	20.89655353088329	17.833209774488893	-20.811627223102704	-64.16969371549507				
	826	827	0.00460780860952567	0.03353467451501821	0.45187492400221485	10000	10000	10000	0	0	1	-59.99999999999999	59.99999999999999	22.4259350041302	18.71197971719445	-22.325062413376468	-65.60798173070906				
	826	828	0.009207378531157969	0.0668933534683892	0.906837566370204	10000	10000	10000	0	0	1	-59.99999999999999	59.99999999999999	-46.35502845104471	-38.22939104153275	46.54910404192749	-57.140891341997815				
	826	829	0.008896925793120642	0.06894725897416473	0.9332403290774008	10000	10000	10000	0	0	1	-59.99999999999999	59.99999999999999	-45.24152208546432	-36.33362785749425	45.42712292190307	-61.57315249755838				
	826	831	0.0015226911730319302	0.012573578141885802	0.158634648919081	10000	10000	10000	0	0	1	-59.99999999999999	59.99999999999999	109.92086481440317	-49.1248985104097	-109.72529246423974	33.72023320364871				
	834	835	0.0008084932396602817	0.012513709804180496	1.27030255614995	10000	10000	10000	0	0	1	-59.99999999999999	59.99999999999999	-861.5393720890424	73.94776630245369	867.2216353082146	-123.16048900724108				
	834	842	0.00014549082519253685	0.002254716045398259	0.22269832618809296	10000	10000	10000	0	0	1	-59.99999999999999	59.99999999999999	286.78449891139377	-63.194849464709534	-286.6707257076474	40.77524292930735				
	835	838	9.66146404063329e-5	0.0014731472514234502	0.14739113607171503	10000	10000	10000	0	0	1	-59.99999999999999	59.99999999999999	-881.9610554183804	86.55105719743781	882.668581448727	-91.59141661691686				
	835	838	9.84816129878163e-5	0.00144476995860599	0.15937327604927112	10000	10000	10000	0	0	1	-59.99999999999999	59.99999999999999	-898.879150509426	90.05579510943504	899.6287000307581	-96.17481325016057				
	835	838	9.87478322768584e-5	0.00148132392670959	0.156638002459677	10000	10000	10000	0	0	1	-59.99999999999999	59.99999999999999	-876.9291847169673	86.46751822971783	877.6442696855999	-92.5619790284104				
	835	842	0.0009852048872625448	0.013410903053786602	1.550909598767191	10000	10000	10000	0	0	1	-59.99999999999999	59.99999999999999	856.7589091244492	-145.7480277572706	-849.9919981470729	70.28364693070793				
	835	843	0.0010582034372207702	0.016747502789877407	1.6869757595628105	10000	10000	10000	0	0	1	-59.99999999999999	59.99999999999999	657.7038533943962	-132.19286658694296	-653.4261774305579	17.68881560363207				
	835	843	0.0011143155935034203	0.0167158546055015	1.7462998146464197	10000	10000	10000	0	0	1	-59.99999999999999	59.99999999999999	658.6528988534685	-137.7294313060144	-654.1333545317787	16.91570040723424				
	836	840	0.0008166417107926679	0.009792438009208997	1.0572590190395703	10000	10000	10000	0	0	1	-59.99999999999999	59.99999999999999	23.403465806982826	-200.83692703867894	-23.238519970593696	88.9436647021621				
	836	841	0.000269834984914353	0.0034198859473569296	0.33836025786237794	10000	10000	10000	0	0	1	-59.99999999999999	59.99999999999999	170.7703037975116	117.83812879938873	-170.6494459173169	-152.10120680851568				
	836	841	0.000259543735438026	0.0032343056194204787	0.3422953104576241	10000	10000	10000	0	0	1	-59.99999999999999	59.99999999999999	180.74149568921482	125.16546470363814	-180.6115517591496	-159.75728303412703				
	836	845	0.00040937875795466795	0.005140715212527658	0.5406758996720241	10000	10000	10000	0	0	1	-59.99999999999999	59.99999999999999	93.60209518127007	-193.37459555083495	-93.46396094850498	137.19763164937075				
	837	843	0.00019758987060747993	0.002955712306726719	0.30561534895984493	10000	10000	10000	0	0	1	-59.99999999999999	59.99999999999999	-380.3530300836324	-54.93694879748047	380.6199436383749	25.80672430404617				
	837	844	8.373439614102238e-5	0.0012538667845614297	0.12379362068258203	10000	10000	10000	0	0	1	-59.99999999999999	59.99999999999999	-557.8931718991083	-139.78606011711312	558.1477790881079	130.17909151187573				
	838	2113	1.88387455288321e-5	0.00032771514415061095	0.032249910256560904	10000	10000	10000	0	0	1	-59.99999999999999	59.99999999999999	-410.87009020796603	-144.075336614435	410.9032725456571	141.18894674444397				
	839	840	0.0012421972407535599	0.016154443020978897	1.6789919260144195	10000	10000	10000	0	0	1	-59.99999999999999	59.99999999999999	-522.9185779089084	-34.27984355824832	526.0723055036327	-107.80545066777991				
	839	844	0.00046576904945075506	0.006635297911394849	0.6585999928862141	10000	10000	10000	0	0	1	-59.99999999999999	59.99999999999999	186.17688720734657	-19.574991369373173	-186.027627899019	-49.958580098851236				
	839	844	0.000435878118721303	0.006642522415706419	0.666168343354031	10000	10000	10000	0	0	1	-59.99999999999999	59.99999999999999	185.9557364016245	-19.152895365916162	-185.816273290869	-51.20515933763101				
	839	845	0.0015578386996053198	0.0213233633661829	2.18654415476369	10000	10000	10000	0	0	1	-59.99999999999999	59.99999999999999	-382.72533283404323	-51.19868484412433	384.884945614044	-156.38964985061565				
	842	843	0.00026676386695448297	0.004148343069399709	0.4286759737035071	10000	10000	10000	0	0	1	-59.99999999999999	59.99999999999999	-117.70500397487984	-4.642140702663363	117.73986923960136	-41.37870806361491				
	843	844	0.00029421087417751487	0.0044822288609286795	0.45139229901703104	10000	10000	10000	0	0	1	-59.99999999999999	59.99999999999999	95.05668434648082	-35.328532041143745	-95.031882409057	-13.313522606588183				
	843	844	0.0003057533605070781	0.004666977884052321	0.4869957687537372	10000	10000	10000	0	0	1	-59.99999999999999	59.99999999999999	91.29577055875157	-36.8216114866781	-91.27199548916349	-15.701829468807407				
	846	853	0.00414097575582564	0.014217270423751293	0.000294684106861241	10000	10000	10000	0	0	1	-59.99999999999999	59.99999999999999	16.281570717276995	2.0394847127667814	-16.27133339215462	-2.0364104333060906				
	846	854	0.012794191822903206	0.056027730337828395	0.0009079053337732335	10000	10000	10000	0	0	1	-59.99999999999999	59.99999999999999	7.970847956814782	1.5441199174637883	-7.963087873848436	-1.6088692829050184				
	846	887	0.006902711550844832	0.02718064181751109	0.0005171574233202257	10000	10000	10000	0	0	1	-59.99999999999999	59.99999999999999	53.94887026674462	14.088045549829806	-53.751823836737046	-13.368093039815696				
	846	929	0.0070405019762460105	0.030629577508196185	0.0007045607436681171	10000	10000	10000	0	0	1	-59.99999999999999	59.99999999999999	14.90745581019953	2.541351473314029	-14.892663063188735	-2.5536199073238834				
	847	853	0.0023084734313748795	0.007166540660597382	0.00015968280894622098	10000	10000	10000	0	0	1	-59.99999999999999	59.99999999999999	-11.095751526113613	-1.4680585811674112	11.098412056526481	1.4589592049104843				
	847	857	0.019596892051748006	0.057640902727022776	0.0011085677714366498	10000	10000	10000	0	0	1	-59.99999999999999	59.99999999999999	9.925077956236208	1.501159351472551	-9.906874503217391	-1.5677741174575024				
	849	851	0.3917471608943681	0.6009235397919779	0.009684207905124868	10000	10000	10000	0	0	1	-59.99999999999999	59.99999999999999	14.144000660936292	-5.5766708973311205	-13.274492810102942	5.943382142040027				
	849	852	0.17912034950072403	0.23034688468254194	0.0030117383379954805	10000	10000	10000	0	0	1	-59.99999999999999	59.99999999999999	13.483367321557765	1.272764027818861	-13.159828034655446	-1.1551871811496626				
	850	851	0.018406711184140293	0.062009631505701684	0.0013492378379362602	10000	10000	10000	0	0	1	-59.99999999999999	59.99999999999999	25.625888246166916	11.354795872798	-25.481393583207023	-11.001736564636815				
...